data_ABEXEM_clean

_audit_creation_method RASPA-1.0
_audit_creation_date 2019-9-10
_audit_author_name 'nscc-gz_material_1'

_cell_length_a    12.135
_cell_length_b    11.0417
_cell_length_c    19.6509
_cell_angle_alpha 90
_cell_angle_beta  90
_cell_angle_gamma 90
_cell_volume      47394.8

_symmetry_cell_setting          orthorhombic
_symmetry_space_group_name_Hall 'P 2c -2n'
_symmetry_space_group_name_H-M  'P n a 21'
_symmetry_Int_Tables_number     33

loop_
_symmetry_equiv_pos_as_xyz
 'x,y,z'
 '-x,-y,z+1/2'
 'x+1/2,-y+1/2,z'
 '-x+1/2,y+1/2,z+1/2'

loop_
_atom_site_label
_atom_site_type_symbol
_atom_site_fract_x
_atom_site_fract_y
_atom_site_fract_z
_atom_site_charge
La1      La     0.840410000000     0.364170000000     0.878640000000     1.95335
La2      La     0.018070000000     0.883590000000     0.664870000000     2.13646
N1       N      0.873600000000     0.274900000000     0.750300000000    -0.213002
C1       C      0.932700000000     0.176300000000     0.737000000000     0.155752
H1       H      0.987500000000     0.155000000000     0.767800000000    -0.0637019
N2       N      0.919200000000     0.106600000000     0.683000000000    -0.233454
C2       C      0.842400000000     0.137500000000     0.637300000000    -0.0236741
C3       C      0.782000000000     0.241300000000     0.645100000000    -0.024543
H2       H      0.732200000000     0.266300000000     0.612000000000     0.0581274
C4       C      0.797800000000     0.307300000000     0.703700000000    -0.0381652
C5       C      0.724200000000     0.413500000000     0.722500000000     0.415594
O1       O      0.736100000000     0.456900000000     0.781000000000    -0.517397
O2       O      0.656300000000     0.447000000000     0.678300000000    -0.474117
C6       C      0.824000000000     0.052700000000     0.577700000000     0.335621
O3       O      0.884500000000     0.961500000000     0.573900000000    -0.44535
O4       O      0.750700000000     0.082700000000     0.536900000000    -0.301068
N3       N      0.991100000000     0.500000000000     0.803700000000    -0.225956
C7       C      0.972500000000     0.601700000000     0.769400000000     0.140056
H3       H      0.900200000000     0.629700000000     0.768400000000    -0.0477696
N4       N      0.046900000000     0.667200000000     0.736400000000    -0.221131
C8       C      0.150100000000     0.626600000000     0.739400000000    -0.0772321
C9       C      0.180200000000     0.519600000000     0.773600000000     0.00255895
H4       H      0.252600000000     0.492400000000     0.775800000000     0.0227004
C10      C      0.094100000000     0.458700000000     0.803500000000    -0.0549726
C11      C      0.115400000000     0.338700000000     0.841900000000     0.404684
O5       O      0.034500000000     0.290200000000     0.871400000000    -0.486884
O6       O      0.210300000000     0.297300000000     0.837300000000    -0.4702
C12      C      0.239000000000     0.704200000000     0.706200000000     0.433282
O7       O      0.208200000000     0.799200000000     0.677800000000    -0.487857
O8       O      0.337200000000     0.667100000000     0.710600000000    -0.533481
C13      C      0.112800000000     0.822000000000     0.508800000000     0.234761
O9       O      0.114700000000     0.908800000000     0.551700000000    -0.384973
O10      O      0.149800000000     0.826300000000     0.449500000000    -0.400726
C14      C      0.061600000000     0.700800000000     0.532000000000     0.285725
O11      O      0.005700000000     0.704100000000     0.586900000000    -0.418787
O12      O      0.075400000000     0.612700000000     0.495500000000    -0.434215
La3      La     0.159590000000     0.635830000000     0.378640000000     1.95337
La4      La     0.340410000000     0.135830000000     0.878640000000     1.95333
La5      La     0.018070000000     0.883590000000     0.664870000000     2.13646
La6      La     0.518070000000     0.616410000000     0.664870000000    -0.474119
La7      La     0.518070000000     0.616410000000     0.664870000000    -0.470208
O16      O      0.156300000000     0.053000000000     0.678300000000    -0.533483
N5       N      0.046900000000     0.667200000000     0.736400000000    -0.400691
O17      O      0.710300000000     0.202700000000     0.837300000000    -0.434253
O18      O      0.208200000000     0.799200000000     0.677800000000     2.13646
O19      O      0.837200000000     0.832900000000     0.710600000000    -0.213002
O20      O      0.850200000000     0.173700000000     0.949500000000     0.155752
O21      O      0.924600000000     0.387300000000     0.995500000000    -0.0637019


