data_ABEXEN_clean

_audit_creation_method RASPA-1.0
_audit_creation_date 2019-9-10
_audit_author_name 'nscc-gz_material_1'

_cell_length_a    25.098
_cell_length_b    25.098
_cell_length_c    28.4464
_cell_angle_alpha 90
_cell_angle_beta  90
_cell_angle_gamma 120
_cell_volume      62072.1

_symmetry_cell_setting          hexagonal
_symmetry_space_group_name_Hall '-P 6 2c'
_symmetry_space_group_name_H-M  'P 6/m c c'
_symmetry_Int_Tables_number     192

loop_
_symmetry_equiv_pos_as_xyz
 'x,y,z'
 '-y,x-y,z'
 '-x+y,-x,z'
 '-x,-y,z'
 'y,-x+y,z'
 'x-y,x,z'
 'y,x,-z+1/2'
 'x-y,-y,-z+1/2'
 '-x,-x+y,-z+1/2'
 '-y,-x,-z+1/2'
 '-x+y,y,-z+1/2'
 'x,x-y,-z+1/2'
 '-x,-y,-z'
 'y,-x+y,-z'
 'x-y,x,-z'
 'x,y,-z'
 '-y,x-y,-z'
 '-x+y,-x,-z'
 '-y,-x,z+1/2'
 '-x+y,y,z+1/2'
 'x,x-y,z+1/2'
 'y,x,z+1/2'
 'x-y,-y,z+1/2'
 '-x,-x+y,z+1/2'

loop_
_atom_site_label
_atom_site_type_symbol
_atom_site_fract_x
_atom_site_fract_y
_atom_site_fract_z
_atom_site_charge
C1       C      0.666700000000     0.333300000000     0.956500000000     0.135005
N1       N      0.691900000000     0.332900000000     0.000000000000    -0.0727769
N2       N      0.667100000000     0.359000000000     0.000000000000    -0.0727219
N3       N      0.641000000000     0.308100000000     0.000000000000    -0.0728286
C2       C      0.666600000000     0.333300000000     0.043500000000     0.134647
In1      In     0.687850000000     0.162940000000     0.000000000000     2.38661
S1       S      0.928130000000     0.303180000000     0.000000000000     0.0913137
O1       O      0.068680000000     0.381320000000     0.000000000000    -0.447276
O2       O      0.793060000000     0.202030000000     0.000000000000    -0.464039
O3       O      0.696870000000     0.161530000000     0.078910000000    -0.491196
O4       O      0.072370000000     0.470080000000     0.000000000000    -0.521168
C3       C      0.801000000000     0.255400000000     0.000000000000     0.333363
O5       O      0.756120000000     0.264240000000     0.000000000000    -0.487952
O6       O      0.636410000000     0.193270000000     0.051360000000    -0.460846
C4       C      0.660750000000     0.182510000000     0.085390000000     0.325409
C5       C      0.863400000000     0.309700000000     0.000000000000    -0.0798189
C6       C      0.974500000000     0.381000000000     0.000000000000    -0.0826759
C7       C      0.646500000000     0.193400000000     0.134250000000    -0.0809979
C8       C      0.041600000000     0.412000000000     0.000000000000     0.334156
C9       C      0.877500000000     0.369100000000     0.000000000000    -0.00354202
H1       H      0.848100000000     0.381400000000     0.000000000000     0.0645356
C10      C      0.939700000000     0.409400000000     0.000000000000    -0.0163932
H2       H      0.956800000000     0.451900000000     0.000000000000     0.0668931
C11      C      0.673300000000     0.181400000000     0.172420000000     0.0184559
H3       H      0.702400000000     0.169300000000     0.167600000000     0.0444756
C12      C      0.606400000000     0.214800000000     0.141900000000     0.0218998
H4       H      0.589900000000     0.225000000000     0.116500000000     0.0443049
C13      C      0.656300000000     0.187400000000     0.217980000000    -0.0983956
H5       H      0.673700000000     0.178500000000     0.243500000000     0.0690726
C14      C      0.590400000000     0.221300000000     0.187370000000    -0.0989123
H6       H      0.563200000000     0.235800000000     0.192100000000     0.0700014
C15      C      0.614200000000     0.206500000000     0.225570000000     0.0407997
O7       O      0.464660000000     0.161530000000     0.421090000000    -0.491299
O8       O      0.556860000000     0.193270000000     0.448640000000    -0.460864
C16      C      0.521760000000     0.182510000000     0.414610000000     0.32546
C17      C      0.546900000000     0.193400000000     0.365750000000    -0.0810958
C18      C      0.508100000000     0.181400000000     0.327580000000     0.0185181
H7       H      0.466900000000     0.169300000000     0.332400000000     0.0444267
C19      C      0.608400000000     0.214800000000     0.358100000000     0.0219647
H8       H      0.635100000000     0.225000000000     0.383500000000     0.0442436
C20      C      0.531100000000     0.187400000000     0.282020000000    -0.0984693
H9       H      0.504800000000     0.178500000000     0.256500000000     0.0691031
C21      C      0.630900000000     0.221300000000     0.312630000000    -0.0989898
H10      H      0.672600000000     0.235800000000     0.307900000000     0.0700173
C22      C      0.592300000000     0.206500000000     0.274430000000     0.0408619
In2      In     0.162940000000     0.475090000000     0.000000000000     2.38661
In3      In     0.475090000000     0.162940000000     0.500000000000     2.3876
O9       O      0.687360000000     0.068680000000     0.000000000000    -0.447296
O10      O      0.696870000000     0.161530000000     0.921090000000    -0.491048
O11      O      0.602290000000     0.072370000000     0.000000000000    -0.521176
O12      O      0.636410000000     0.193270000000     0.948640000000    -0.460598


